81
L1-C3H7-PF6
C                  1.37688600    1.34354700    0.55968900
C                 -0.04214300    1.22442500    0.74061900
C                  0.29547400   -1.00049400    1.64639200
C                  1.65008000   -0.84903600    1.64909200
C                 -1.00088500    2.30475700    0.72058200
C                 -1.80287000   -0.37271300    0.53165500
C                 -2.75667900    0.65578300    0.38233200
C                 -2.34902100    2.02159200    0.60325900
C                 -4.06650400    0.29344100    0.00596400
H                 -4.82774700    1.05733200   -0.06405600
C                 -4.39816600   -1.01736500   -0.30824400
C                 -3.38711500   -2.00063100   -0.28709700
C                 -2.11351400   -1.68143700    0.13326800
H                 -3.58193800   -3.01044500   -0.61908600
H                 -1.33550400   -2.42857300    0.08995900
C                  2.22668200    0.26422900    0.93976300
C                  3.59889900    0.33404100    0.65794200
C                  4.14735000    1.41527400   -0.02161200
H                  4.24168900   -0.48677800    0.94476200
C                  1.95590300    2.42617800   -0.14314300
C                  3.29919800    2.46544500   -0.43578000
H                  1.33666200    3.21676500   -0.53104900
H                  3.68150300    3.30077400   -1.00470800
S                 -6.08487100   -1.33949800   -0.77387200
S                  5.88889900    1.36807500   -0.33972100
C                 -6.11741500   -3.13718700   -1.08273000
H                 -5.83089500   -3.69498600   -0.19118800
H                 -7.15481200   -3.36410000   -1.32845300
H                 -5.48406800   -3.40706100   -1.92758000
C                  6.21838600    2.91640900   -1.24655300
H                  7.29004100    2.90602300   -1.44476500
H                  5.68007000    2.94139800   -2.19370400
H                  5.97534300    3.78819800   -0.63953200
N                 -0.50996800   -0.04690500    0.97493900
C                 -0.52139600    3.71601700    1.03855100
C                 -0.56346000    4.76134500   -0.09614500
C                  0.29018300    5.98641300    0.23950100
H                 -0.22959900    4.31693800   -1.03920100
H                  0.22081100    6.74217800   -0.54683900
P                  1.07061500   -2.05042500   -2.32588600
F                 -0.40806200   -2.36855400   -2.97656800
F                  0.65299900   -2.89047200   -0.97467800
F                  1.66003700   -3.43291900   -2.99931500
F                  2.54519800   -1.73510700   -1.68002600
F                  1.48487600   -1.21616200   -3.68435800
F                  0.47805800   -0.67175100   -1.65928400
H                 -1.13288000    4.08605600    1.86741700
H                  0.48929800    3.66504200    1.44222800
H                 -1.59371800    5.07671500   -0.26788600
H                 -0.03831100    6.44499900    1.17730900
H                  1.34393500    5.71353800    0.35369200
C                 -3.40047400    3.10192700    0.61845000
C                 -3.83199800    3.55463700   -0.79794300
H                 -4.28047300    2.74802200    1.16300400
H                 -3.03913500    3.97248900    1.16646200
C                 -4.81495000    4.72492500   -0.74077800
H                 -2.94552800    3.83603400   -1.37154800
H                 -4.28264900    2.71650800   -1.33533000
H                 -5.12058600    5.02858400   -1.74528200
H                 -5.71584500    4.45456600   -0.18158300
H                 -4.36431200    5.59294500   -0.24937000
C                  2.54647900   -1.84087100    2.35623600
C                  2.93500300   -3.03325600    1.45897400
H                  3.44996700   -1.33297000    2.70235700
H                  2.06387700   -2.21776700    3.25876800
C                  3.87730200   -4.00243300    2.17420800
H                  2.02368200   -3.54853700    1.14299500
H                  3.39357300   -2.66237600    0.53870500
H                  4.13745400   -4.84647200    1.52968700
H                  4.80757800   -3.50449100    2.46596400
H                  3.41537000   -4.40335500    3.08219300
C                 -0.40144800   -1.98122100    2.56712800
C                 -0.55480400   -1.36974500    3.97713300
H                 -1.39000400   -2.25840100    2.21771300
H                  0.16948800   -2.90887600    2.61485100
C                 -1.21979500   -2.34820300    4.94728100
H                  0.42551900   -1.06925300    4.35871300
H                 -1.15158200   -0.45465500    3.89921200
H                 -1.33091500   -1.90159000    5.93871200
H                 -2.21451000   -2.63714800    4.59456100
H                 -0.62383800   -3.25988100    5.05322400

