78

C                  1.36578454    1.29030923   -0.52057935
C                  0.05497010    0.70458162   -0.30417252
C                  1.13491720   -1.49871763   -0.05475703
C                  2.38286936   -0.91594586   -0.06151190
C                 -1.13491569    1.49866038   -0.05473813
C                 -1.36579194   -1.29037190   -0.52051940
C                 -2.53028912   -0.47790751   -0.38945392
C                 -2.38288191    0.91586837   -0.06142833
C                 -3.80893125   -1.05507129   -0.55981881
H                 -4.68358750   -0.43507432   -0.41160989
C                 -3.96540321   -2.37956418   -0.93325177
C                 -2.81352278   -3.15970698   -1.16358408
C                 -1.56078976   -2.62472576   -0.95134660
H                 -2.89007327   -4.18057924   -1.51165286
H                 -0.70898045   -3.25324342   -1.15377071
C                  2.53028406    0.47783570   -0.38959994
C                  3.80890834    1.05498549   -0.56005500
C                  3.96535288    2.37945558   -0.93360506
H                  4.68358980    0.43503270   -0.41182279
C                  1.56074886    2.62464809   -0.95145157
C                  2.81347209    3.15960000   -1.16385358
H                  0.70894130    3.25319601   -1.15374835
H                  2.89002558    4.18043870   -1.51202096
S                 -5.63344091   -2.98381405   -1.12374101
S                  5.63337995    2.98358447   -1.12461342
C                 -5.41451431   -4.73485159   -1.58772876
H                 -4.88496470   -5.28603132   -0.81047824
H                 -6.42410703   -5.13450532   -1.68432615
H                 -4.90028387   -4.83149151   -2.54397685
C                  5.41445657    4.73533630   -1.58591634
H                  6.42404575    5.13528350   -1.68133181
H                  4.90072732    4.83350788   -2.54227570
H                  4.88440587    5.28513701   -0.80802817
C                  1.02170510   -2.91940556    0.40373613
C                  1.59887173   -3.97685292   -0.30861338
C                  0.35377278   -3.20024771    1.60177149
C                  1.50244023   -5.28555929    0.15988915
H                  2.11604970   -3.77266866   -1.23799155
C                  0.26186518   -4.50688892    2.07593873
H                 -0.09666397   -2.38786025    2.16095160
C                  0.83379453   -5.55572388    1.35454965
H                  1.94917709   -6.09387116   -0.40821287
H                 -0.25545190   -4.70603734    3.00787028
H                  0.76031775   -6.57354610    1.72052884
C                  3.60049505   -1.70094128    0.31156107
C                  3.89049454   -1.94546693    1.65798841
C                  4.47100205   -2.19201818   -0.66762749
C                  5.02105507   -2.67733439    2.01884442
H                  3.21976894   -1.56973701    2.42241538
C                  5.60213431   -2.92397763   -0.30950249
H                  4.25435269   -2.00631983   -1.71386305
C                  5.87951844   -3.17043618    1.03554424
H                  5.23008408   -2.86328321    3.06647822
H                  6.26370531   -3.30385992   -1.07999209
H                  6.75770063   -3.74140039    1.31510776
C                 -1.02171447    2.91937814    0.40361728
C                 -1.59892659    3.97675568   -0.30880974
C                 -0.35371571    3.20035986    1.60157760
C                 -1.50248934    5.28550358    0.15955211
H                 -2.11617736    3.77246790   -1.23812593
C                 -0.26179975    4.50705590    2.07561251
H                  0.09676583    2.38804223    2.16082361
C                 -0.83377913    5.55580659    1.35415402
H                 -1.94926461    6.09375395   -0.40860736
H                  0.25556350    4.70628959    3.00750044
H                 -0.76030192    6.57367157    1.72001299
C                 -3.60047393    1.70090259    0.31165549
C                 -3.89035241    1.94564175    1.65806621
C                 -4.47108301    2.19183007   -0.66752935
C                 -5.02085783    2.67760481    2.01891052
H                 -3.21956914    1.57001547    2.42249314
C                 -5.60215511    2.92388518   -0.30941958
H                 -4.25454540    2.00594766   -1.71375376
C                 -5.87939488    3.17058108    1.03561643
H                 -5.22978074    2.86372850    3.06653454
H                 -6.26378870    3.30366225   -1.07990733
H                 -6.75752706    3.74162449    1.31517627
C                 -0.05499384   -0.70463992   -0.30416563
