85
L1-PF6
C	-0.7767510587	1.7720444177	-0.0195879001
C	0.4497923876	1.0420513392	-0.158957903
C	-0.7928147334	-0.829047978	-1.0728122721
C	-1.9481091363	-0.1075753597	-1.0934924091
C	1.7750784356	1.6042835757	-0.0788539844
C	1.3865163489	-1.162718649	-0.0001225824
C	2.6873451179	-0.637211813	0.1554134215
C	2.8768658297	0.7795105757	0.0005211985
C	3.7407173604	-1.5181317344	0.4679477984
H	4.7450455635	-1.1226698307	0.5380931185
C	3.5052214346	-2.863819633	0.7140590268
C	2.1766792693	-3.3377087633	0.6836369641
C	1.1388620096	-2.5033054806	0.3241111508
H	1.9424887692	-4.3566918547	0.9570727023
H	0.1296562058	-2.878518957	0.34944562
C	-2.000109314	1.1727909492	-0.4402334864
C	-3.2099370212	1.8595831376	-0.2703199174
C	-3.253588535	3.0959644783	0.3630921
H	-4.1246733108	1.400436623	-0.620479667
C	-0.8490335825	3.0266216978	0.6335666401
C	-2.049268797	3.6655402659	0.8357531674
H	0.0416646166	3.4865617375	1.0277316088
H	-2.0504118424	4.6052319198	1.369346969
S	4.9115906148	-3.879002925	1.1014190646
S	-4.8415098621	3.8536809708	0.5405682724
C	4.1999892622	-5.5440221049	1.3251832673
H	3.7018214499	-5.8844562735	0.4174746304
H	5.0525292551	-6.191676801	1.5296178604
H	3.5184832805	-5.5735516527	2.1751169082
C	-4.4975692411	5.4115775011	1.4254476787
H	-5.469327975	5.891530619	1.5399588256
H	-4.0750936043	5.2200671953	2.4115143701
H	-3.8445281275	6.0604472996	0.8424229928
N	0.3455516676	-0.3065866854	-0.4134679819
C	-0.6053192806	-2.055900356	-1.896109385
C	-1.436066425	-3.1728255641	-1.7614018176
C	0.3929898225	-2.0557583762	-2.8790934287
C	-1.2696674385	-4.2728547303	-2.5982138513
H	-2.194176695	-3.1824569531	-0.9910714309
C	0.5550426466	-3.155916043	-3.7161766674
H	1.0394660514	-1.1924757995	-2.9899606688
C	-0.2761268035	-4.2682019099	-3.5778141162
H	-1.9145949573	-5.1361370132	-2.4816009826
H	1.3269782247	-3.142717284	-4.4768594305
H	-0.149165898	-5.1258408435	-4.2283785454
C	-3.1435750811	-0.6071700526	-1.8346717193
C	-3.2213815788	-0.4547987356	-3.2218612509
C	-4.1971822521	-1.2161873154	-1.1453707726
C	-4.3369023708	-0.9194656264	-3.9166611797
H	-2.4036849311	0.0164229776	-3.7552716977
C	-5.3121373753	-1.6786898763	-1.8425075893
H	-4.1296777502	-1.3311358823	-0.0707224842
C	-5.3836204687	-1.5339726455	-3.2284814046
H	-4.3871863791	-0.8028845192	-4.9932790293
H	-6.1225139128	-2.1558926086	-1.3031548024
H	-6.2502058776	-1.8970456804	-3.7692448033
C	1.974934803	3.07650799	-0.2351498032
C	2.5862423667	3.8355786383	0.7684921065
C	1.5816329261	3.7024784201	-1.4233031665
C	2.7898620099	5.2019993413	0.5911257742
H	2.8923735285	3.3562569138	1.6900584461
C	1.7923120111	5.0672487473	-1.60306497
H	1.1109900879	3.1182916086	-2.2058531842
C	2.3938222002	5.8213492014	-0.5948253815
H	3.2574366003	5.7818174396	1.3785154871
H	1.4880043125	5.540742335	-2.529386892
H	2.5545018067	6.8843159672	-0.733165949
C	4.2579200466	1.3366445305	-0.0611145891
C	4.768385387	1.7877401863	-1.2827499964
C	5.0511305105	1.4177469156	1.0883192394
C	6.0560657407	2.3152495929	-1.3525550436
H	4.1534318231	1.7313478948	-2.1732914687
C	6.3359273237	1.952868176	1.0176677051
H	4.6564394237	1.0756428618	2.0382350767
C	6.8412978082	2.4018933031	-0.2024590265
H	6.4434895262	2.6615860873	-2.3038180471
H	6.9393352874	2.0203273826	1.9155059758
H	7.8409479599	2.8173664847	-0.2568098115
P	-2.0752542515	-1.5794991048	2.6931384075
F	-0.8909540069	-2.5069201082	3.3567456622
F	-1.9741387693	-2.4537519437	1.2993719943
F	-3.2119540528	-2.6235762412	3.2609519558
F	-3.2580335045	-0.6571777374	2.0209800352
F	-2.1793090611	-0.7082612289	4.0834426202
F	-0.9391398512	-0.5391106237	2.123270648
