150
L2-PF6
C	4.6071540229	-1.6216677447	0.3506998116
C	3.2524959522	-1.6225743231	-0.1023258626
C	3.6331690606	0.5113260142	-1.1938996697
C	4.9649313538	0.4681691551	-0.9032853985
C	2.3715811188	-2.7695589726	-0.1096647835
C	1.3772323644	-0.1886898814	-0.5275920139
C	0.4833867898	-1.2839084382	-0.4459895256
C	1.0263087266	-2.6162980085	-0.3612750826
C	-0.8912620523	-1.0247758762	-0.4485403372
H	-1.5757711282	-1.8494372808	-0.369261418
C	-1.3714364677	0.2751223537	-0.4893144593
C	-0.4757347379	1.3667246465	-0.3841333992
C	0.8980551059	1.1088114949	-0.4265380876
H	1.5840441132	1.9302550573	-0.3295010436
C	5.4679295775	-0.5432191154	-0.015240279
C	6.7906488142	-0.5202762725	0.4463049191
C	7.2660379636	-1.4928257288	1.3179640667
H	7.4386508698	0.2881201028	0.1357246476
C	5.1106501057	-2.5920468694	1.2535768661
C	6.3926830868	-2.5238732197	1.7393498745
H	4.4724064315	-3.3816678883	1.6136351385
H	6.7157011283	-3.2684159064	2.4526355984
S	8.9432129115	-1.3449280809	1.8493350528
C	9.181776382	-2.7544582328	2.9830357691
H	10.2156520443	-2.6748367018	3.3183557881
H	8.519836582	-2.682579275	3.84557579
H	9.045272697	-3.7036278874	2.465618822
N	2.7656794544	-0.4445198275	-0.622931134
C	-1.0163853738	2.6949363296	-0.2343509085
C	-2.3550228121	2.8372523118	0.0528444771
C	-3.236964829	1.6900189772	0.0357494287
N	-2.7625439586	0.5339731998	-0.5450609012
C	-3.641563916	-0.3969367474	-1.1327354785
C	-4.9677249634	-0.363714779	-0.8103929543
C	-5.4468768305	0.6090900378	0.1294310864
C	-4.5792093807	1.6707874508	0.519141142
H	-7.4048145844	-0.2366317322	0.2786921625
C	-6.7645148146	0.5616568375	0.6176553885
C	-5.0648902618	2.6085226111	1.4716518096
C	-6.3324653396	2.5139927447	1.9784633978
C	-7.2163896249	1.4937066865	1.5368232366
H	-4.4193207978	3.3845156832	1.8476489598
H	-6.6585721559	3.2231593256	2.7303478361
S	-8.8343119304	1.5011657269	2.2351615564
C	-9.6416681175	0.0578114115	1.4676514799
H	-9.1201258126	-0.8633211226	1.7273963067
H	-10.6471678147	0.0338246313	1.8867889813
H	-9.7046130885	0.1748305438	0.3858223311
P	-3.525427416	-2.0027127437	2.5895246436
F	-3.36037886	-2.48252886	1.0234620092
F	-3.8642076985	-3.5511882894	3.0246893268
F	-3.6907477482	-1.5232851844	4.1522147378
F	-5.1227819564	-1.7218495287	2.3290574476
F	-3.1759628052	-0.4589731496	2.1489560941
F	-1.9224774639	-2.2846323866	2.8428943937
P	3.5862231983	1.9576430096	2.5945057389
F	3.3929887794	2.5022164425	1.0532526821
F	3.9383653649	3.4858844538	3.0868338717
F	3.779380916	1.413327042	4.1327354111
F	5.1772260155	1.6834710669	2.2922342429
F	3.2230048595	0.4343383587	2.0972206155
F	1.9892989778	2.2328154582	2.8900454024
C	-2.9231228468	4.2065815373	0.2280322694
C	-3.8749620823	4.6855756084	-0.6790185189
C	-2.4851660559	5.0368425704	1.2655412745
C	-4.3837601709	5.9749770606	-0.5482518279
H	-4.2138855659	4.047658523	-1.4872823994
C	-3.0018686123	6.3228503254	1.4011143172
H	-1.7464775251	4.6706452198	1.9678486895
C	-3.9515829875	6.7954255499	0.4945065328
H	-5.1160707886	6.3387028886	-1.2597211765
H	-2.6622910309	6.9552008201	2.2132295563
H	-4.3511720589	7.7975572601	0.5988722044
C	-0.144233437	3.8862952657	-0.4349705312
C	-0.3446269597	4.6941740289	-1.5612579685
C	0.8609508231	4.2159253516	0.4776102381
C	0.4470177962	5.8194933543	-1.7661219731
H	-1.1227693182	4.4397835773	-2.2709900079
C	1.6543988476	5.3424733043	0.2675346426
H	1.0234083676	3.5990572071	1.3506608789
C	1.4476607993	6.1482920486	-0.8503539516
H	0.2874297238	6.4355164171	-2.6436183175
H	2.4332712634	5.585673587	0.9807392189
H	2.0660385158	7.0238108759	-1.0124514994
C	-5.9253525982	-1.3174829302	-1.4429026251
C	-6.3996445821	-1.0871927138	-2.7369185695
C	-6.3622648442	-2.4420846656	-0.734728463
C	-7.2945690176	-1.9804126005	-3.3240037067
H	-6.0592801671	-0.2160578007	-3.2849958218
C	-7.2576512422	-3.3328022268	-1.3237830783
H	-5.9896806078	-2.6133192273	0.2676896711
C	-7.7238541338	-3.1054270799	-2.6192655478
H	-7.6543718797	-1.798120767	-4.3302141421
H	-7.5874666154	-4.2059596306	-0.7723667782
H	-8.4183553189	-3.8007023039	-3.0769219114
C	-3.1039442247	-1.2567375948	-2.2218123796
C	-2.4797254838	-0.6396025967	-3.3140703332
C	-3.2526086382	-2.6472261104	-2.2080705088
C	-2.0160049946	-1.4046882049	-4.380186091
H	-2.3596127404	0.4378521085	-3.3284667183
C	-2.7885187355	-3.4080689308	-3.2762035962
H	-3.7039386407	-3.1279786516	-1.3516846608
C	-2.1712868737	-2.7912847324	-4.3642192114
H	-1.5364768722	-0.9178951041	-5.2215307033
H	-2.8910997536	-4.4852214613	-3.2469926013
H	-1.8058614836	-3.3883893037	-5.1917857395
C	0.1499054839	-3.7996819146	-0.58843146
C	0.3285358259	-4.5656442487	-1.7473037709
C	-0.8371925554	-4.1634699871	0.3308757964
C	-0.4669864741	-5.6831775517	-1.9779508643
H	1.0928425992	-4.2849701271	-2.4621275529
C	-1.6342904709	-5.2823482248	0.0951904695
H	-0.9823169612	-3.5796638216	1.2293118543
C	-1.4494107336	-6.0462743254	-1.0554058761
H	-0.3244883164	-6.2664354912	-2.8804161557
H	-2.3988274408	-5.5524507629	0.8141844562
H	-2.0706082551	-6.9158643321	-1.2374057736
C	2.9405576385	-4.1450490481	0.0045311424
C	3.8704146548	-4.5945629265	-0.9396110105
C	2.5240652795	-5.0093245155	1.0229032191
C	4.3787219668	-5.8885610791	-0.8642818278
H	4.1928888596	-3.9302644984	-1.7331744434
C	3.0404245017	-6.3001676955	1.1029465672
H	1.8024125634	-4.6659079425	1.7538763811
C	3.9681503221	-6.7433109809	0.1595175299
H	5.0937718354	-6.2291707259	-1.6041841253
H	2.7175359608	-6.9591513865	1.9005693218
H	4.3673505659	-7.7491633473	0.2206139276
C	3.0701870554	1.4079097945	-2.2400324845
C	3.2123009099	2.7977637385	-2.1781144607
C	2.4286852896	0.8277694588	-3.3425740298
C	2.7262296842	3.5945317011	-3.2097037474
H	3.6764659373	3.2496003528	-1.3127670211
C	1.9418476034	1.6287993173	-4.3713832575
H	2.3133520739	-0.2491507943	-3.3947585882
C	2.091816743	3.0146168569	-4.3080209769
H	2.8251844175	4.6703845552	-3.1434913843
H	1.4488533681	1.1705164137	-5.2209317411
H	1.7091099292	3.6394851731	-5.1067906138
C	5.9052580444	1.4506968352	-1.5168515448
C	6.3564437262	1.2741194425	-2.8274299877
C	6.3447752562	2.5522321685	-0.7749507343
C	7.2305321631	2.1984868398	-3.3974719654
H	6.0136054045	0.4209119615	-3.4015529048
C	7.2190681176	3.4743932706	-1.3472060118
H	5.98895393	2.6820864775	0.2397790602
C	7.6617120477	3.3011185417	-2.6592262925
H	7.5722490815	2.0582330831	-4.4166504155
H	7.5503782156	4.3300952865	-0.7698977192
H	8.3394317904	4.0210041284	-3.1038223768
