172
L3 opt only
C                  3.43869000    0.00845600   -0.07419700
C                  4.96833700   -1.62182000    1.59663000
C                  3.92192900   -2.18437500    0.88730700
C                  5.41056800    1.44281900   -0.39322700
C                  6.40833800    0.43329800    2.03509200
C                  7.04108500    1.54135000    1.40448200
C                  6.57169500    1.95532200    0.10770500
C                  8.12092200    2.17758900    2.03586800
H                  8.62867200    2.98257300    1.52211200
C                  8.53088600    1.80637100    3.31153200
C                  7.83065600    0.77985700    3.98245700
C                  6.81318800    0.10348200    3.34997500
H                  8.07924500    0.50758500    4.99824800
H                  6.29728200   -0.66622200    3.89915600
C                  3.07492300   -1.34462200    0.09709500
C                  1.86488300   -1.80111300   -0.48990200
H                  1.60405200   -2.84816800   -0.42390300
C                  2.52205900    0.92975600   -0.61087200
C                  1.33692700    0.46700400   -1.12614600
H                  2.74045000    1.98501800   -0.62281600
S                  9.89893800    2.68834500    4.00634300
C                 10.15012300    1.90838100    5.63648900
H                 10.38156900    0.84849500    5.53329500
H                 11.00955300    2.42262900    6.06628600
H                  9.28579200    2.05557000    6.28357400
P                  7.48615900   -2.06571900   -1.83031400
F                  9.11501100   -2.12602400   -2.03149800
F                  7.55913500   -3.37747800   -0.84169900
F                  7.67960200   -1.07204300   -0.53177900
F                  5.85322400   -2.00483300   -1.61438500
F                  7.40909500   -0.75555600   -2.81723200
F                  7.27993600   -3.05479400   -3.12544900
C                 -4.93318700    1.63510600    1.70860400
C                 -5.32909700    0.28420800    1.43576100
C                 -3.06537400    1.38762800    0.17262300
C                 -3.43119200    0.03822900   -0.01949400
C                 -2.52303000   -0.87165300   -0.58856200
H                 -2.74101800   -1.92663400   -0.61821700
C                 -1.03946900    0.98198800   -1.08156900
C                 -1.86458900    1.85616200   -0.42319800
H                 -1.60263600    2.90168200   -0.33968900
C                 -7.74872200   -0.81393400    4.09618500
C                 -8.46296800   -1.83119600    3.41553400
H                 -7.99513900   -0.57312700    5.12381500
C                 -8.07860400   -2.17680400    2.13007400
H                 -8.58376700   -2.96612200    1.59719400
S                 -9.78635700   -2.59547100    4.30201200
C                -10.43416800   -3.83111700    3.12800400
H                -11.26061400   -4.31592800    3.64707200
H                -10.80895400   -3.35214300    2.22342100
H                 -9.67579700   -4.57526800    2.88476500
P                 -7.50416700    2.12870300   -1.67283900
F                 -7.56232300    3.42373100   -0.66159200
F                 -7.67132800    1.11312500   -0.38767800
F                 -9.13663700    2.18765300   -1.84315100
F                 -7.44188800    0.83515500   -2.68260600
F                 -7.32434700    3.13942600   -2.95521200
F                 -5.86746000    2.06892000   -1.48800200
C                  1.03017200   -0.91377600   -1.11744700
C                 -1.34630700   -0.39808000   -1.11361200
C                  0.11333200    0.76106300   -5.60556500
C                  0.27716900    1.44082800   -4.39317700
C                  0.12873500    0.74144000   -3.20401000
C                 -0.17138500   -0.62946800   -3.21574700
C                 -0.33882300   -1.30413600   -4.41663500
C                 -0.19425300   -0.59939800   -5.61716600
H                  0.22676400    1.29717900   -6.54086900
H                  0.52059100    2.49717200   -4.38119700
H                 -0.58205100   -2.36058400   -4.42268000
H                 -0.32259500   -1.11609100   -6.56143500
C                  0.26517500    1.31786800   -1.79377700
C                 -0.28563200   -1.23484200   -1.81575400
H                 -0.51822400   -2.29767300   -1.82547000
H                  0.49752200    2.38079200   -1.78523100
N                  4.73472900    0.41172300    0.31329900
C                  5.36148900   -0.26774000    1.34121900
N                 -4.72137800   -0.37396800    0.38163600
C                 -3.90032900    2.21196900    0.99243700
C                 -6.36116100   -0.43013800    2.13495300
C                 -7.00426300   -1.52363900    1.49514000
C                 -6.55923700   -1.91460900    0.18471200
C                 -5.40679300   -1.39207100   -0.32918900
C                 -6.74473400   -0.12403300    3.46660200
H                 -6.21908100    0.63486800    4.02145200
C                 -3.63879600    3.67556900    1.08223000
C                 -4.54195000    4.56548700    0.48949000
C                 -2.51383200    4.17364000    1.74804400
C                 -4.31695200    5.93855400    0.56332000
H                 -5.41555300    4.17740800   -0.01854000
C                 -2.29738400    5.54808000    1.82727700
H                 -1.81782600    3.48687300    2.21604200
C                 -3.19733300    6.43330400    1.23349300
H                 -5.01930800    6.62204700    0.09973900
H                 -1.42821400    5.92553000    2.35362700
H                 -3.02778900    7.50227900    1.29401000
C                 -5.69509600    2.48738000    2.67252300
C                 -7.03001100    2.82365400    2.42632800
C                 -5.06163700    2.98569200    3.81639500
C                 -7.72078400    3.64318100    3.31530300
H                 -7.51834700    2.44685400    1.53928100
C                 -5.75670900    3.79852800    4.70921100
H                 -4.02663500    2.72943300    4.00883000
C                 -7.08915900    4.12962000    4.46065200
H                 -8.75385900    3.90234900    3.11280400
H                 -5.25792500    4.17319300    5.59570800
H                 -7.63023600    4.76400000    5.15347100
C                 -4.92766000   -1.76898400   -1.69038600
C                 -4.78315700   -0.79434100   -2.68424500
C                 -4.63540800   -3.10423500   -1.99207100
C                 -4.34397600   -1.15102400   -3.95546500
H                 -5.01205300    0.23706600   -2.45972500
C                 -4.19185500   -3.45742600   -3.26345600
H                 -4.73653600   -3.86169600   -1.22537100
C                 -4.04184000   -2.48092900   -4.24840800
H                 -4.23191100   -0.38724200   -4.71627200
H                 -3.95689700   -4.49281400   -3.48120400
H                 -3.68779400   -2.75378100   -5.23579600
C                 -7.39461700   -2.84314800   -0.63338100
C                 -7.45038500   -4.21143600   -0.34926900
C                 -8.15043500   -2.32710000   -1.69121300
C                 -8.24613000   -5.05697500   -1.12019900
H                 -6.86258900   -4.61487700    0.46768400
C                 -8.94663700   -3.17463800   -2.45965400
H                 -8.09872100   -1.26882200   -1.91521400
C                 -8.99600300   -4.54017500   -2.17725800
H                 -8.27732300   -6.11727600   -0.89699700
H                 -9.52676100   -2.76780600   -3.28028900
H                 -9.61411200   -5.19809300   -2.77748200
C                  7.39294900    2.89481600   -0.71183500
C                  8.12834000    2.39329100   -1.79095700
C                  7.45185700    4.25947900   -0.41196900
C                  8.90716700    3.25182300   -2.56490800
H                  8.07358600    1.33778100   -2.02702800
C                  8.22965500    5.11623300   -1.18896900
H                  6.87918100    4.65168600    0.42103800
C                  8.95880700    4.61410700   -2.26735100
H                  9.47135600    2.85633900   -3.40203800
H                  8.26276900    6.17393900   -0.95400500
H                  9.56271100    5.28083800   -2.87230400
C                  4.90845700    1.83859700   -1.74087600
C                  4.74931400    0.87828500   -2.74637000
C                  4.60875200    3.17744000   -2.01823900
C                  4.28838800    1.25247000   -4.00482300
H                  4.98393900   -0.15580900   -2.54074900
C                  4.14386200    3.54823300   -3.27694000
H                  4.72118100    3.92386900   -1.24231800
C                  3.97919000    2.58587400   -4.27337800
H                  4.16507100    0.49960000   -4.77472000
H                  3.90361500    4.58623100   -3.47569600
H                  3.60825500    2.87231800   -5.25065900
C                  5.74223700   -2.49220600    2.53455600
C                  7.07163500   -2.82959600    2.26168700
C                  5.12517600   -3.00571700    3.68062500
C                  7.77337900   -3.66522900    3.12668000
H                  7.54709100   -2.44061700    1.37293900
C                  5.83135400   -3.83482700    4.54954300
H                  4.09440300   -2.74866200    3.89369100
C                  7.15832800   -4.16686400    4.27453900
H                  8.80203300   -3.92509300    2.90360000
H                  5.34535300   -4.22134500    5.43805100
H                  7.70798000   -4.81383500    4.94871200
C                  3.65914800   -3.64871300    0.95679400
C                  4.55374600   -4.53052800    0.33945200
C                  2.54139500   -4.15547500    1.62824900
C                  4.32724200   -5.90419900    0.39430500
H                  5.42190300   -4.13591200   -0.17281600
C                  2.32372000   -5.53066000    1.68861500
H                  1.85229200   -3.47507900    2.11536100
C                  3.21496900   -6.40774200    1.07015300
H                  5.02275000   -6.58136400   -0.08847400
H                  1.46038000   -5.91506500    2.21949500
H                  3.04438500   -7.47728100    1.11590700
