63
N1 structure
C	0.1106288981	-1.7884355895	0.4196342342
C	-1.2529913011	-1.9810261995	0.4355526761
C	-2.1372826854	-0.9107387059	0.0699622218
C	-1.5609837341	0.3420734323	-0.3046151141
C	-0.1757368241	0.4641595583	-0.3200648981
H	-3.9850765715	-1.9735622102	0.3662395202
C	-3.5367666229	-1.0319419584	0.0776420675
C	-2.400611454	1.4261167018	-0.6719124904
H	0.3141919124	1.3785404667	-0.6250084908
C	-3.7612936455	1.2807122534	-0.6621415976
C	-4.347085925	0.0400613586	-0.2817518796
H	-1.9545423267	2.3703319761	-0.9608311617
H	-4.3843614568	2.1170037029	-0.9451956981
S	-6.0891093568	-0.2337628823	-0.2355207688
C	-6.8259987011	1.3529510712	-0.74889251
H	-6.5390719827	1.6132996224	-1.7667487714
H	-7.9014354184	1.1795239847	-0.7159867802
H	-6.5729576704	2.1514434334	-0.0528005479
N	0.6246332867	-0.5499935732	0.0245749174
C	2.0631458441	-0.3223483965	-0.0602207717
C	2.6834983816	0.4753455658	0.8914961492
C	2.7822580436	-0.8657245356	-1.1232086771
C	4.0503466429	0.7298008331	0.7926626971
H	2.1130864537	0.8933316122	1.7122546525
C	4.142671727	-0.6112225451	-1.2186991884
H	2.2832455552	-1.4732660371	-1.8679523363
C	4.7930258737	0.1857526992	-0.2611671163
H	4.5177939148	1.3498102007	1.5447701119
H	4.7031159566	-1.0301480536	-2.0465796633
S	6.5383216644	0.4368666072	-0.4887039692
C	7.0198803427	1.4924102946	0.9163639141
H	8.0900200321	1.6575248068	0.7922990318
H	6.5055542902	2.452628138	0.8856045482
H	6.8449835278	0.9900328586	1.8674426683
P	-0.40464852	-2.2810458403	-4.1948852611
F	-0.7165910337	-1.0367244593	-3.1680660879
F	0.7933387382	-2.8019690272	-3.1904585396
F	-1.4866485845	-3.2176480753	-3.3838677567
F	-0.089864634	-3.5285068532	-5.2152007775
F	-1.5997666476	-1.7612785972	-5.1936632894
F	0.6798304955	-1.3463876164	-4.9999114201
C	-1.8275341646	-3.2975234579	0.854214656
C	-1.9820948867	-3.6048566866	2.2101614817
C	-2.2489927051	-4.2181463255	-0.1123780834
C	-2.54297136	-4.8220128852	2.5951431862
H	-1.6643521681	-2.8928134691	2.9632970426
C	-2.8077095656	-5.4349973297	0.2763087572
H	-2.1307156088	-3.9837868833	-1.1642150372
C	-2.9555689744	-5.7396715157	1.6293849389
H	-2.6574103331	-5.0511956783	3.6484820533
H	-3.1262098412	-6.144451845	-0.4790081497
H	-3.3907009355	-6.6860798446	1.9295819554
C	1.082766886	-2.8412014183	0.8362326153
C	1.6872385371	-2.7773383066	2.0970977079
C	1.3728517222	-3.9123389719	-0.0154274869
C	2.5720692463	-3.774991593	2.5004412969
H	1.4601649478	-1.9549937012	2.7654585382
C	2.2604588443	-4.9068838366	0.3913917953
H	0.9163984923	-3.958451874	-0.9963429133
C	2.8606441976	-4.8409857749	1.6483429869
H	3.0320447615	-3.7201466664	3.4802992461
H	2.483009532	-5.7317562826	-0.2756141701
H	3.5493035211	-5.6166360857	1.9631708058
